src/applications/examples/hello_world/10x10.raw
0  100.000


   1,   3,   0.000,   0.000,   0.000,   0.000,   1,   1.000,   0.000,'BUS-0001   ',  100.0000,   2
   2,   1,  10.000,   5.000,   0.000,   0.000,   1,   1.000, -10.000,'BUS-0002   ',  100.0000,   2
   3,   1,  10.000,   5.000,   0.000,   0.000,   1,   1.000, -10.000,'BUS-0003   ',  100.0000,   2
   4,   1,  10.000,   5.000,   0.000,   0.000,   1,   1.000, -10.000,'BUS-0004   ',  100.0000,   2
   5,   1,  10.000,   5.000,   0.000,   0.000,   1,   1.000, -10.000,'BUS-0005   ',  100.0000,   2
   6,   1,  10.000,   5.000,   0.000,   0.000,   1,   1.000, -10.000,'BUS-0006   ',  100.0000,   2
   7,   1,  10.000,   5.000,   0.000,   0.000,   1,   1.000, -10.000,'BUS-0007   ',  100.0000,   2
   8,   1,  10.000,   5.000,   0.000,   0.000,   1,   1.000, -10.000,'BUS-0008   ',  100.0000,   2
   9,   1,  10.000,   5.000,   0.000,   0.000,   1,   1.000, -10.000,'BUS-0009   ',  100.0000,   2
  10,   1,  10.000,   5.000,   0.000,   0.000,   1,   1.000, -10.000,'BUS-0010   ',  100.0000,   2
  11,   1,  10.000,   5.000,   0.000,   0.000,   1,   1.000, -10.000,'BUS-0011   ',  100.0000,   2
  12,   1,  10.000,   5.000,   0.000,   0.000,   1,   1.000, -10.000,'BUS-0012   ',  100.0000,   2
  13,   1,  10.000,   5.000,   0.000,   0.000,   1,   1.000, -10.000,'BUS-0013   ',  100.0000,   2
  14,   1,  10.000,   5.000,   0.000,   0.000,   1,   1.000, -10.000,'BUS-0014   ',  100.0000,   2
  15,   1,  10.000,   5.000,   0.000,   0.000,   1,   1.000, -10.000,'BUS-0015   ',  100.0000,   2
  16,   1,  10.000,   5.000,   0.000,   0.000,   1,   1.000, -10.000,'BUS-0016   ',  100.0000,   2
  17,   1,  10.000,   5.000,   0.000,   0.000,   1,   1.000, -10.000,'BUS-0017   ',  100.0000,   2
  18,   1,  10.000,   5.000,   0.000,   0.000,   1,   1.000, -10.000,'BUS-0018   ',  100.0000,   2
  19,   1,  10.000,   5.000,   0.000,   0.000,   1,   1.000, -10.000,'BUS-0019   ',  100.0000,   2
  20,   1,  10.000,   5.000,   0.000,   0.000,   1,   1.000, -10.000,'BUS-0020   ',  100.0000,   2
  21,   1,  10.000,   5.000,   0.000,   0.000,   1,   1.000, -10.000,'BUS-0021   ',  100.0000,   2
  22,   1,  10.000,   5.000,   0.000,   0.000,   1,   1.000, -10.000,'BUS-0022   ',  100.0000,   2
  23,   1,  10.000,   5.000,   0.000,   0.000,   1,   1.000, -10.000,'BUS-0023   ',  100.0000,   2
  24,   1,  10.000,   5.000,   0.000,   0.000,   1,   1.000, -10.000,'BUS-0024   ',  100.0000,   2
  25,   1,  10.000,   5.000,   0.000,   0.000,   1,   1.000, -10.000,'BUS-0025   ',  100.0000,   2
  26,   1,  10.000,   5.000,   0.000,   0.000,   1,   1.000, -10.000,'BUS-0026   ',  100.0000,   2
  27,   1,  10.000,   5.000,   0.000,   0.000,   1,   1.000, -10.000,'BUS-0027   ',  100.0000,   2
  28,   1,  10.000,   5.000,   0.000,   0.000,   1,   1.000, -10.000,'BUS-0028   ',  100.0000,   2
  29,   1,  10.000,   5.000,   0.000,   0.000,   1,   1.000, -10.000,'BUS-0029   ',  100.0000,   2
  30,   1,  10.000,   5.000,   0.000,   0.000,   1,   1.000, -10.000,'BUS-0030   ',  100.0000,   2
  31,   1,  10.000,   5.000,   0.000,   0.000,   1,   1.000, -10.000,'BUS-0031   ',  100.0000,   2
  32,   1,  10.000,   5.000,   0.000,   0.000,   1,   1.000, -10.000,'BUS-0032   ',  100.0000,   2
  33,   1,  10.000,   5.000,   0.000,   0.000,   1,   1.000, -10.000,'BUS-0033   ',  100.0000,   2
  34,   1,  10.000,   5.000,   0.000,   0.000,   1,   1.000, -10.000,'BUS-0034   ',  100.0000,   2
  35,   1,  10.000,   5.000,   0.000,   0.000,   1,   1.000, -10.000,'BUS-0035   ',  100.0000,   2
  36,   1,  10.000,   5.000,   0.000,   0.000,   1,   1.000, -10.000,'BUS-0036   ',  100.0000,   2
  37,   1,  10.000,   5.000,   0.000,   0.000,   1,   1.000, -10.000,'BUS-0037   ',  100.0000,   2
  38,   1,  10.000,   5.000,   0.000,   0.000,   1,   1.000, -10.000,'BUS-0038   ',  100.0000,   2
  39,   1,  10.000,   5.000,   0.000,   0.000,   1,   1.000, -10.000,'BUS-0039   ',  100.0000,   2
  40,   1,  10.000,   5.000,   0.000,   0.000,   1,   1.000, -10.000,'BUS-0040   ',  100.0000,   2
  41,   1,  10.000,   5.000,   0.000,   0.000,   1,   1.000, -10.000,'BUS-0041   ',  100.0000,   2
  42,   1,  10.000,   5.000,   0.000,   0.000,   1,   1.000, -10.000,'BUS-0042   ',  100.0000,   2
  43,   1,  10.000,   5.000,   0.000,   0.000,   1,   1.000, -10.000,'BUS-0043   ',  100.0000,   2
  44,   1,  10.000,   5.000,   0.000,   0.000,   1,   1.000, -10.000,'BUS-0044   ',  100.0000,   2
  45,   1,  10.000,   5.000,   0.000,   0.000,   1,   1.000, -10.000,'BUS-0045   ',  100.0000,   2
  46,   1,  10.000,   5.000,   0.000,   0.000,   1,   1.000, -10.000,'BUS-0046   ',  100.0000,   2
  47,   1,  10.000,   5.000,   0.000,   0.000,   1,   1.000, -10.000,'BUS-0047   ',  100.0000,   2
  48,   1,  10.000,   5.000,   0.000,   0.000,   1,   1.000, -10.000,'BUS-0048   ',  100.0000,   2
  49,   1,  10.000,   5.000,   0.000,   0.000,   1,   1.000, -10.000,'BUS-0049   ',  100.0000,   2
  50,   1,  10.000,   5.000,   0.000,   0.000,   1,   1.000, -10.000,'BUS-0050   ',  100.0000,   2
  51,   1,  10.000,   5.000,   0.000,   0.000,   1,   1.000, -10.000,'BUS-0051   ',  100.0000,   2
  52,   1,  10.000,   5.000,   0.000,   0.000,   1,   1.000, -10.000,'BUS-0052   ',  100.0000,   2
  53,   1,  10.000,   5.000,   0.000,   0.000,   1,   1.000, -10.000,'BUS-0053   ',  100.0000,   2
  54,   1,  10.000,   5.000,   0.000,   0.000,   1,   1.000, -10.000,'BUS-0054   ',  100.0000,   2
  55,   1,  10.000,   5.000,   0.000,   0.000,   1,   1.000, -10.000,'BUS-0055   ',  100.0000,   2
  56,   1,  10.000,   5.000,   0.000,   0.000,   1,   1.000, -10.000,'BUS-0056   ',  100.0000,   2
  57,   1,  10.000,   5.000,   0.000,   0.000,   1,   1.000, -10.000,'BUS-0057   ',  100.0000,   2
  58,   1,  10.000,   5.000,   0.000,   0.000,   1,   1.000, -10.000,'BUS-0058   ',  100.0000,   2
  59,   1,  10.000,   5.000,   0.000,   0.000,   1,   1.000, -10.000,'BUS-0059   ',  100.0000,   2
  60,   1,  10.000,   5.000,   0.000,   0.000,   1,   1.000, -10.000,'BUS-0060   ',  100.0000,   2
  61,   1,  10.000,   5.000,   0.000,   0.000,   1,   1.000, -10.000,'BUS-0061   ',  100.0000,   2
  62,   1,  10.000,   5.000,   0.000,   0.000,   1,   1.000, -10.000,'BUS-0062   ',  100.0000,   2
  63,   1,  10.000,   5.000,   0.000,   0.000,   1,   1.000, -10.000,'BUS-0063   ',  100.0000,   2
  64,   1,  10.000,   5.000,   0.000,   0.000,   1,   1.000, -10.000,'BUS-0064   ',  100.0000,   2
  65,   1,  10.000,   5.000,   0.000,   0.000,   1,   1.000, -10.000,'BUS-0065   ',  100.0000,   2
  66,   1,  10.000,   5.000,   0.000,   0.000,   1,   1.000, -10.000,'BUS-0066   ',  100.0000,   2
  67,   1,  10.000,   5.000,   0.000,   0.000,   1,   1.000, -10.000,'BUS-0067   ',  100.0000,   2
  68,   1,  10.000,   5.000,   0.000,   0.000,   1,   1.000, -10.000,'BUS-0068   ',  100.0000,   2
  69,   1,  10.000,   5.000,   0.000,   0.000,   1,   1.000, -10.000,'BUS-0069   ',  100.0000,   2
  70,   1,  10.000,   5.000,   0.000,   0.000,   1,   1.000, -10.000,'BUS-0070   ',  100.0000,   2
  71,   1,  10.000,   5.000,   0.000,   0.000,   1,   1.000, -10.000,'BUS-0071   ',  100.0000,   2
  72,   1,  10.000,   5.000,   0.000,   0.000,   1,   1.000, -10.000,'BUS-0072   ',  100.0000,   2
  73,   1,  10.000,   5.000,   0.000,   0.000,   1,   1.000, -10.000,'BUS-0073   ',  100.0000,   2
  74,   1,  10.000,   5.000,   0.000,   0.000,   1,   1.000, -10.000,'BUS-0074   ',  100.0000,   2
  75,   1,  10.000,   5.000,   0.000,   0.000,   1,   1.000, -10.000,'BUS-0075   ',  100.0000,   2
  76,   1,  10.000,   5.000,   0.000,   0.000,   1,   1.000, -10.000,'BUS-0076   ',  100.0000,   2
  77,   1,  10.000,   5.000,   0.000,   0.000,   1,   1.000, -10.000,'BUS-0077   ',  100.0000,   2
  78,   1,  10.000,   5.000,   0.000,   0.000,   1,   1.000, -10.000,'BUS-0078   ',  100.0000,   2
  79,   1,  10.000,   5.000,   0.000,   0.000,   1,   1.000, -10.000,'BUS-0079   ',  100.0000,   2
  80,   1,  10.000,   5.000,   0.000,   0.000,   1,   1.000, -10.000,'BUS-0080   ',  100.0000,   2
  81,   1,  10.000,   5.000,   0.000,   0.000,   1,   1.000, -10.000,'BUS-0081   ',  100.0000,   2
  82,   1,  10.000,   5.000,   0.000,   0.000,   1,   1.000, -10.000,'BUS-0082   ',  100.0000,   2
  83,   1,  10.000,   5.000,   0.000,   0.000,   1,   1.000, -10.000,'BUS-0083   ',  100.0000,   2
  84,   1,  10.000,   5.000,   0.000,   0.000,   1,   1.000, -10.000,'BUS-0084   ',  100.0000,   2
  85,   1,  10.000,   5.000,   0.000,   0.000,   1,   1.000, -10.000,'BUS-0085   ',  100.0000,   2
  86,   1,  10.000,   5.000,   0.000,   0.000,   1,   1.000, -10.000,'BUS-0086   ',  100.0000,   2
  87,   1,  10.000,   5.000,   0.000,   0.000,   1,   1.000, -10.000,'BUS-0087   ',  100.0000,   2
  88,   1,  10.000,   5.000,   0.000,   0.000,   1,   1.000, -10.000,'BUS-0088   ',  100.0000,   2
  89,   1,  10.000,   5.000,   0.000,   0.000,   1,   1.000, -10.000,'BUS-0089   ',  100.0000,   2
  90,   1,  10.000,   5.000,   0.000,   0.000,   1,   1.000, -10.000,'BUS-0090   ',  100.0000,   2
  91,   1,  10.000,   5.000,   0.000,   0.000,   1,   1.000, -10.000,'BUS-0091   ',  100.0000,   2
  92,   1,  10.000,   5.000,   0.000,   0.000,   1,   1.000, -10.000,'BUS-0092   ',  100.0000,   2
  93,   1,  10.000,   5.000,   0.000,   0.000,   1,   1.000, -10.000,'BUS-0093   ',  100.0000,   2
  94,   1,  10.000,   5.000,   0.000,   0.000,   1,   1.000, -10.000,'BUS-0094   ',  100.0000,   2
  95,   1,  10.000,   5.000,   0.000,   0.000,   1,   1.000, -10.000,'BUS-0095   ',  100.0000,   2
  96,   1,  10.000,   5.000,   0.000,   0.000,   1,   1.000, -10.000,'BUS-0096   ',  100.0000,   2
  97,   1,  10.000,   5.000,   0.000,   0.000,   1,   1.000, -10.000,'BUS-0097   ',  100.0000,   2
  98,   1,  10.000,   5.000,   0.000,   0.000,   1,   1.000, -10.000,'BUS-0098   ',  100.0000,   2
  99,   1,  10.000,   5.000,   0.000,   0.000,   1,   1.000, -10.000,'BUS-0099   ',  100.0000,   2
 100,   1,  10.000,   5.000,   0.000,   0.000,   1,   1.000, -10.000,'BUS-0100   ',  100.0000,   2
0 / END OF BUS DATA, BEGIN GENERATOR DATA
0 / END OF GENERATOR DATA, BEGIN BRANCH DATA
   1,   2,'BL',   0.05000,   0.10000,   0.05000,  0.00,  0.00,  0.00, 0.00000,   0.000, 0.00000, 0.00000, 0.00000, 0.00000,   1
   2,   3,'BL',   0.05000,   0.10000,   0.05000,  0.00,  0.00,  0.00, 0.00000,   0.000, 0.00000, 0.00000, 0.00000, 0.00000,   1
   3,   4,'BL',   0.05000,   0.10000,   0.05000,  0.00,  0.00,  0.00, 0.00000,   0.000, 0.00000, 0.00000, 0.00000, 0.00000,   1
   4,   5,'BL',   0.05000,   0.10000,   0.05000,  0.00,  0.00,  0.00, 0.00000,   0.000, 0.00000, 0.00000, 0.00000, 0.00000,   1
   5,   6,'BL',   0.05000,   0.10000,   0.05000,  0.00,  0.00,  0.00, 0.00000,   0.000, 0.00000, 0.00000, 0.00000, 0.00000,   1
   6,   7,'BL',   0.05000,   0.10000,   0.05000,  0.00,  0.00,  0.00, 0.00000,   0.000, 0.00000, 0.00000, 0.00000, 0.00000,   1
   7,   8,'BL',   0.05000,   0.10000,   0.05000,  0.00,  0.00,  0.00, 0.00000,   0.000, 0.00000, 0.00000, 0.00000, 0.00000,   1
   8,   9,'BL',   0.05000,   0.10000,   0.05000,  0.00,  0.00,  0.00, 0.00000,   0.000, 0.00000, 0.00000, 0.00000, 0.00000,   1
   9,  10,'BL',   0.05000,   0.10000,   0.05000,  0.00,  0.00,  0.00, 0.00000,   0.000, 0.00000, 0.00000, 0.00000, 0.00000,   1
  11,  12,'BL',   0.05000,   0.10000,   0.05000,  0.00,  0.00,  0.00, 0.00000,   0.000, 0.00000, 0.00000, 0.00000, 0.00000,   1
  12,  13,'BL',   0.05000,   0.10000,   0.05000,  0.00,  0.00,  0.00, 0.00000,   0.000, 0.00000, 0.00000, 0.00000, 0.00000,   1
  13,  14,'BL',   0.05000,   0.10000,   0.05000,  0.00,  0.00,  0.00, 0.00000,   0.000, 0.00000, 0.00000, 0.00000, 0.00000,   1
  14,  15,'BL',   0.05000,   0.10000,   0.05000,  0.00,  0.00,  0.00, 0.00000,   0.000, 0.00000, 0.00000, 0.00000, 0.00000,   1
  15,  16,'BL',   0.05000,   0.10000,   0.05000,  0.00,  0.00,  0.00, 0.00000,   0.000, 0.00000, 0.00000, 0.00000, 0.00000,   1
  16,  17,'BL',   0.05000,   0.10000,   0.05000,  0.00,  0.00,  0.00, 0.00000,   0.000, 0.00000, 0.00000, 0.00000, 0.00000,   1
  17,  18,'BL',   0.05000,   0.10000,   0.05000,  0.00,  0.00,  0.00, 0.00000,   0.000, 0.00000, 0.00000, 0.00000, 0.00000,   1
  18,  19,'BL',   0.05000,   0.10000,   0.05000,  0.00,  0.00,  0.00, 0.00000,   0.000, 0.00000, 0.00000, 0.00000, 0.00000,   1
  19,  20,'BL',   0.05000,   0.10000,   0.05000,  0.00,  0.00,  0.00, 0.00000,   0.000, 0.00000, 0.00000, 0.00000, 0.00000,   1
  21,  22,'BL',   0.05000,   0.10000,   0.05000,  0.00,  0.00,  0.00, 0.00000,   0.000, 0.00000, 0.00000, 0.00000, 0.00000,   1
  22,  23,'BL',   0.05000,   0.10000,   0.05000,  0.00,  0.00,  0.00, 0.00000,   0.000, 0.00000, 0.00000, 0.00000, 0.00000,   1
  23,  24,'BL',   0.05000,   0.10000,   0.05000,  0.00,  0.00,  0.00, 0.00000,   0.000, 0.00000, 0.00000, 0.00000, 0.00000,   1
  24,  25,'BL',   0.05000,   0.10000,   0.05000,  0.00,  0.00,  0.00, 0.00000,   0.000, 0.00000, 0.00000, 0.00000, 0.00000,   1
  25,  26,'BL',   0.05000,   0.10000,   0.05000,  0.00,  0.00,  0.00, 0.00000,   0.000, 0.00000, 0.00000, 0.00000, 0.00000,   1
  26,  27,'BL',   0.05000,   0.10000,   0.05000,  0.00,  0.00,  0.00, 0.00000,   0.000, 0.00000, 0.00000, 0.00000, 0.00000,   1
  27,  28,'BL',   0.05000,   0.10000,   0.05000,  0.00,  0.00,  0.00, 0.00000,   0.000, 0.00000, 0.00000, 0.00000, 0.00000,   1
  28,  29,'BL',   0.05000,   0.10000,   0.05000,  0.00,  0.00,  0.00, 0.00000,   0.000, 0.00000, 0.00000, 0.00000, 0.00000,   1
  29,  30,'BL',   0.05000,   0.10000,   0.05000,  0.00,  0.00,  0.00, 0.00000,   0.000, 0.00000, 0.00000, 0.00000, 0.00000,   1
  31,  32,'BL',   0.05000,   0.10000,   0.05000,  0.00,  0.00,  0.00, 0.00000,   0.000, 0.00000, 0.00000, 0.00000, 0.00000,   1
  32,  33,'BL',   0.05000,   0.10000,   0.05000,  0.00,  0.00,  0.00, 0.00000,   0.000, 0.00000, 0.00000, 0.00000, 0.00000,   1
  33,  34,'BL',   0.05000,   0.10000,   0.05000,  0.00,  0.00,  0.00, 0.00000,   0.000, 0.00000, 0.00000, 0.00000, 0.00000,   1
  34,  35,'BL',   0.05000,   0.10000,   0.05000,  0.00,  0.00,  0.00, 0.00000,   0.000, 0.00000, 0.00000, 0.00000, 0.00000,   1
  35,  36,'BL',   0.05000,   0.10000,   0.05000,  0.00,  0.00,  0.00, 0.00000,   0.000, 0.00000, 0.00000, 0.00000, 0.00000,   1
  36,  37,'BL',   0.05000,   0.10000,   0.05000,  0.00,  0.00,  0.00, 0.00000,   0.000, 0.00000, 0.00000, 0.00000, 0.00000,   1
  37,  38,'BL',   0.05000,   0.10000,   0.05000,  0.00,  0.00,  0.00, 0.00000,   0.000, 0.00000, 0.00000, 0.00000, 0.00000,   1
  38,  39,'BL',   0.05000,   0.10000,   0.05000,  0.00,  0.00,  0.00, 0.00000,   0.000, 0.00000, 0.00000, 0.00000, 0.00000,   1
  39,  40,'BL',   0.05000,   0.10000,   0.05000,  0.00,  0.00,  0.00, 0.00000,   0.000, 0.00000, 0.00000, 0.00000, 0.00000,   1
  41,  42,'BL',   0.05000,   0.10000,   0.05000,  0.00,  0.00,  0.00, 0.00000,   0.000, 0.00000, 0.00000, 0.00000, 0.00000,   1
  42,  43,'BL',   0.05000,   0.10000,   0.05000,  0.00,  0.00,  0.00, 0.00000,   0.000, 0.00000, 0.00000, 0.00000, 0.00000,   1
  43,  44,'BL',   0.05000,   0.10000,   0.05000,  0.00,  0.00,  0.00, 0.00000,   0.000, 0.00000, 0.00000, 0.00000, 0.00000,   1
  44,  45,'BL',   0.05000,   0.10000,   0.05000,  0.00,  0.00,  0.00, 0.00000,   0.000, 0.00000, 0.00000, 0.00000, 0.00000,   1
  45,  46,'BL',   0.05000,   0.10000,   0.05000,  0.00,  0.00,  0.00, 0.00000,   0.000, 0.00000, 0.00000, 0.00000, 0.00000,   1
  46,  47,'BL',   0.05000,   0.10000,   0.05000,  0.00,  0.00,  0.00, 0.00000,   0.000, 0.00000, 0.00000, 0.00000, 0.00000,   1
  47,  48,'BL',   0.05000,   0.10000,   0.05000,  0.00,  0.00,  0.00, 0.00000,   0.000, 0.00000, 0.00000, 0.00000, 0.00000,   1
  48,  49,'BL',   0.05000,   0.10000,   0.05000,  0.00,  0.00,  0.00, 0.00000,   0.000, 0.00000, 0.00000, 0.00000, 0.00000,   1
  49,  50,'BL',   0.05000,   0.10000,   0.05000,  0.00,  0.00,  0.00, 0.00000,   0.000, 0.00000, 0.00000, 0.00000, 0.00000,   1
  51,  52,'BL',   0.05000,   0.10000,   0.05000,  0.00,  0.00,  0.00, 0.00000,   0.000, 0.00000, 0.00000, 0.00000, 0.00000,   1
  52,  53,'BL',   0.05000,   0.10000,   0.05000,  0.00,  0.00,  0.00, 0.00000,   0.000, 0.00000, 0.00000, 0.00000, 0.00000,   1
  53,  54,'BL',   0.05000,   0.10000,   0.05000,  0.00,  0.00,  0.00, 0.00000,   0.000, 0.00000, 0.00000, 0.00000, 0.00000,   1
  54,  55,'BL',   0.05000,   0.10000,   0.05000,  0.00,  0.00,  0.00, 0.00000,   0.000, 0.00000, 0.00000, 0.00000, 0.00000,   1
  55,  56,'BL',   0.05000,   0.10000,   0.05000,  0.00,  0.00,  0.00, 0.00000,   0.000, 0.00000, 0.00000, 0.00000, 0.00000,   1
  56,  57,'BL',   0.05000,   0.10000,   0.05000,  0.00,  0.00,  0.00, 0.00000,   0.000, 0.00000, 0.00000, 0.00000, 0.00000,   1
  57,  58,'BL',   0.05000,   0.10000,   0.05000,  0.00,  0.00,  0.00, 0.00000,   0.000, 0.00000, 0.00000, 0.00000, 0.00000,   1
  58,  59,'BL',   0.05000,   0.10000,   0.05000,  0.00,  0.00,  0.00, 0.00000,   0.000, 0.00000, 0.00000, 0.00000, 0.00000,   1
  59,  60,'BL',   0.05000,   0.10000,   0.05000,  0.00,  0.00,  0.00, 0.00000,   0.000, 0.00000, 0.00000, 0.00000, 0.00000,   1
  61,  62,'BL',   0.05000,   0.10000,   0.05000,  0.00,  0.00,  0.00, 0.00000,   0.000, 0.00000, 0.00000, 0.00000, 0.00000,   1
  62,  63,'BL',   0.05000,   0.10000,   0.05000,  0.00,  0.00,  0.00, 0.00000,   0.000, 0.00000, 0.00000, 0.00000, 0.00000,   1
  63,  64,'BL',   0.05000,   0.10000,   0.05000,  0.00,  0.00,  0.00, 0.00000,   0.000, 0.00000, 0.00000, 0.00000, 0.00000,   1
  64,  65,'BL',   0.05000,   0.10000,   0.05000,  0.00,  0.00,  0.00, 0.00000,   0.000, 0.00000, 0.00000, 0.00000, 0.00000,   1
  65,  66,'BL',   0.05000,   0.10000,   0.05000,  0.00,  0.00,  0.00, 0.00000,   0.000, 0.00000, 0.00000, 0.00000, 0.00000,   1
  66,  67,'BL',   0.05000,   0.10000,   0.05000,  0.00,  0.00,  0.00, 0.00000,   0.000, 0.00000, 0.00000, 0.00000, 0.00000,   1
  67,  68,'BL',   0.05000,   0.10000,   0.05000,  0.00,  0.00,  0.00, 0.00000,   0.000, 0.00000, 0.00000, 0.00000, 0.00000,   1
  68,  69,'BL',   0.05000,   0.10000,   0.05000,  0.00,  0.00,  0.00, 0.00000,   0.000, 0.00000, 0.00000, 0.00000, 0.00000,   1
  69,  70,'BL',   0.05000,   0.10000,   0.05000,  0.00,  0.00,  0.00, 0.00000,   0.000, 0.00000, 0.00000, 0.00000, 0.00000,   1
  71,  72,'BL',   0.05000,   0.10000,   0.05000,  0.00,  0.00,  0.00, 0.00000,   0.000, 0.00000, 0.00000, 0.00000, 0.00000,   1
  72,  73,'BL',   0.05000,   0.10000,   0.05000,  0.00,  0.00,  0.00, 0.00000,   0.000, 0.00000, 0.00000, 0.00000, 0.00000,   1
  73,  74,'BL',   0.05000,   0.10000,   0.05000,  0.00,  0.00,  0.00, 0.00000,   0.000, 0.00000, 0.00000, 0.00000, 0.00000,   1
  74,  75,'BL',   0.05000,   0.10000,   0.05000,  0.00,  0.00,  0.00, 0.00000,   0.000, 0.00000, 0.00000, 0.00000, 0.00000,   1
  75,  76,'BL',   0.05000,   0.10000,   0.05000,  0.00,  0.00,  0.00, 0.00000,   0.000, 0.00000, 0.00000, 0.00000, 0.00000,   1
  76,  77,'BL',   0.05000,   0.10000,   0.05000,  0.00,  0.00,  0.00, 0.00000,   0.000, 0.00000, 0.00000, 0.00000, 0.00000,   1
  77,  78,'BL',   0.05000,   0.10000,   0.05000,  0.00,  0.00,  0.00, 0.00000,   0.000, 0.00000, 0.00000, 0.00000, 0.00000,   1
  78,  79,'BL',   0.05000,   0.10000,   0.05000,  0.00,  0.00,  0.00, 0.00000,   0.000, 0.00000, 0.00000, 0.00000, 0.00000,   1
  79,  80,'BL',   0.05000,   0.10000,   0.05000,  0.00,  0.00,  0.00, 0.00000,   0.000, 0.00000, 0.00000, 0.00000, 0.00000,   1
  81,  82,'BL',   0.05000,   0.10000,   0.05000,  0.00,  0.00,  0.00, 0.00000,   0.000, 0.00000, 0.00000, 0.00000, 0.00000,   1
  82,  83,'BL',   0.05000,   0.10000,   0.05000,  0.00,  0.00,  0.00, 0.00000,   0.000, 0.00000, 0.00000, 0.00000, 0.00000,   1
  83,  84,'BL',   0.05000,   0.10000,   0.05000,  0.00,  0.00,  0.00, 0.00000,   0.000, 0.00000, 0.00000, 0.00000, 0.00000,   1
  84,  85,'BL',   0.05000,   0.10000,   0.05000,  0.00,  0.00,  0.00, 0.00000,   0.000, 0.00000, 0.00000, 0.00000, 0.00000,   1
  85,  86,'BL',   0.05000,   0.10000,   0.05000,  0.00,  0.00,  0.00, 0.00000,   0.000, 0.00000, 0.00000, 0.00000, 0.00000,   1
  86,  87,'BL',   0.05000,   0.10000,   0.05000,  0.00,  0.00,  0.00, 0.00000,   0.000, 0.00000, 0.00000, 0.00000, 0.00000,   1
  87,  88,'BL',   0.05000,   0.10000,   0.05000,  0.00,  0.00,  0.00, 0.00000,   0.000, 0.00000, 0.00000, 0.00000, 0.00000,   1
  88,  89,'BL',   0.05000,   0.10000,   0.05000,  0.00,  0.00,  0.00, 0.00000,   0.000, 0.00000, 0.00000, 0.00000, 0.00000,   1
  89,  90,'BL',   0.05000,   0.10000,   0.05000,  0.00,  0.00,  0.00, 0.00000,   0.000, 0.00000, 0.00000, 0.00000, 0.00000,   1
  91,  92,'BL',   0.05000,   0.10000,   0.05000,  0.00,  0.00,  0.00, 0.00000,   0.000, 0.00000, 0.00000, 0.00000, 0.00000,   1
  92,  93,'BL',   0.05000,   0.10000,   0.05000,  0.00,  0.00,  0.00, 0.00000,   0.000, 0.00000, 0.00000, 0.00000, 0.00000,   1
  93,  94,'BL',   0.05000,   0.10000,   0.05000,  0.00,  0.00,  0.00, 0.00000,   0.000, 0.00000, 0.00000, 0.00000, 0.00000,   1
  94,  95,'BL',   0.05000,   0.10000,   0.05000,  0.00,  0.00,  0.00, 0.00000,   0.000, 0.00000, 0.00000, 0.00000, 0.00000,   1
  95,  96,'BL',   0.05000,   0.10000,   0.05000,  0.00,  0.00,  0.00, 0.00000,   0.000, 0.00000, 0.00000, 0.00000, 0.00000,   1
  96,  97,'BL',   0.05000,   0.10000,   0.05000,  0.00,  0.00,  0.00, 0.00000,   0.000, 0.00000, 0.00000, 0.00000, 0.00000,   1
  97,  98,'BL',   0.05000,   0.10000,   0.05000,  0.00,  0.00,  0.00, 0.00000,   0.000, 0.00000, 0.00000, 0.00000, 0.00000,   1
  98,  99,'BL',   0.05000,   0.10000,   0.05000,  0.00,  0.00,  0.00, 0.00000,   0.000, 0.00000, 0.00000, 0.00000, 0.00000,   1
  99, 100,'BL',   0.05000,   0.10000,   0.05000,  0.00,  0.00,  0.00, 0.00000,   0.000, 0.00000, 0.00000, 0.00000, 0.00000,   1
   1,  11,'BL',   0.05000,   0.10000,   0.05000,  0.00,  0.00,  0.00, 0.00000,   0.000, 0.00000, 0.00000, 0.00000, 0.00000,   1
   2,  12,'BL',   0.05000,   0.10000,   0.05000,  0.00,  0.00,  0.00, 0.00000,   0.000, 0.00000, 0.00000, 0.00000, 0.00000,   1
   3,  13,'BL',   0.05000,   0.10000,   0.05000,  0.00,  0.00,  0.00, 0.00000,   0.000, 0.00000, 0.00000, 0.00000, 0.00000,   1
   4,  14,'BL',   0.05000,   0.10000,   0.05000,  0.00,  0.00,  0.00, 0.00000,   0.000, 0.00000, 0.00000, 0.00000, 0.00000,   1
   5,  15,'BL',   0.05000,   0.10000,   0.05000,  0.00,  0.00,  0.00, 0.00000,   0.000, 0.00000, 0.00000, 0.00000, 0.00000,   1
   6,  16,'BL',   0.05000,   0.10000,   0.05000,  0.00,  0.00,  0.00, 0.00000,   0.000, 0.00000, 0.00000, 0.00000, 0.00000,   1
   7,  17,'BL',   0.05000,   0.10000,   0.05000,  0.00,  0.00,  0.00, 0.00000,   0.000, 0.00000, 0.00000, 0.00000, 0.00000,   1
   8,  18,'BL',   0.05000,   0.10000,   0.05000,  0.00,  0.00,  0.00, 0.00000,   0.000, 0.00000, 0.00000, 0.00000, 0.00000,   1
   9,  19,'BL',   0.05000,   0.10000,   0.05000,  0.00,  0.00,  0.00, 0.00000,   0.000, 0.00000, 0.00000, 0.00000, 0.00000,   1
  10,  20,'BL',   0.05000,   0.10000,   0.05000,  0.00,  0.00,  0.00, 0.00000,   0.000, 0.00000, 0.00000, 0.00000, 0.00000,   1
  11,  21,'BL',   0.05000,   0.10000,   0.05000,  0.00,  0.00,  0.00, 0.00000,   0.000, 0.00000, 0.00000, 0.00000, 0.00000,   1
  12,  22,'BL',   0.05000,   0.10000,   0.05000,  0.00,  0.00,  0.00, 0.00000,   0.000, 0.00000, 0.00000, 0.00000, 0.00000,   1
  13,  23,'BL',   0.05000,   0.10000,   0.05000,  0.00,  0.00,  0.00, 0.00000,   0.000, 0.00000, 0.00000, 0.00000, 0.00000,   1
  14,  24,'BL',   0.05000,   0.10000,   0.05000,  0.00,  0.00,  0.00, 0.00000,   0.000, 0.00000, 0.00000, 0.00000, 0.00000,   1
  15,  25,'BL',   0.05000,   0.10000,   0.05000,  0.00,  0.00,  0.00, 0.00000,   0.000, 0.00000, 0.00000, 0.00000, 0.00000,   1
  16,  26,'BL',   0.05000,   0.10000,   0.05000,  0.00,  0.00,  0.00, 0.00000,   0.000, 0.00000, 0.00000, 0.00000, 0.00000,   1
  17,  27,'BL',   0.05000,   0.10000,   0.05000,  0.00,  0.00,  0.00, 0.00000,   0.000, 0.00000, 0.00000, 0.00000, 0.00000,   1
  18,  28,'BL',   0.05000,   0.10000,   0.05000,  0.00,  0.00,  0.00, 0.00000,   0.000, 0.00000, 0.00000, 0.00000, 0.00000,   1
  19,  29,'BL',   0.05000,   0.10000,   0.05000,  0.00,  0.00,  0.00, 0.00000,   0.000, 0.00000, 0.00000, 0.00000, 0.00000,   1
  20,  30,'BL',   0.05000,   0.10000,   0.05000,  0.00,  0.00,  0.00, 0.00000,   0.000, 0.00000, 0.00000, 0.00000, 0.00000,   1
  21,  31,'BL',   0.05000,   0.10000,   0.05000,  0.00,  0.00,  0.00, 0.00000,   0.000, 0.00000, 0.00000, 0.00000, 0.00000,   1
  22,  32,'BL',   0.05000,   0.10000,   0.05000,  0.00,  0.00,  0.00, 0.00000,   0.000, 0.00000, 0.00000, 0.00000, 0.00000,   1
  23,  33,'BL',   0.05000,   0.10000,   0.05000,  0.00,  0.00,  0.00, 0.00000,   0.000, 0.00000, 0.00000, 0.00000, 0.00000,   1
  24,  34,'BL',   0.05000,   0.10000,   0.05000,  0.00,  0.00,  0.00, 0.00000,   0.000, 0.00000, 0.00000, 0.00000, 0.00000,   1
  25,  35,'BL',   0.05000,   0.10000,   0.05000,  0.00,  0.00,  0.00, 0.00000,   0.000, 0.00000, 0.00000, 0.00000, 0.00000,   1
  26,  36,'BL',   0.05000,   0.10000,   0.05000,  0.00,  0.00,  0.00, 0.00000,   0.000, 0.00000, 0.00000, 0.00000, 0.00000,   1
  27,  37,'BL',   0.05000,   0.10000,   0.05000,  0.00,  0.00,  0.00, 0.00000,   0.000, 0.00000, 0.00000, 0.00000, 0.00000,   1
  28,  38,'BL',   0.05000,   0.10000,   0.05000,  0.00,  0.00,  0.00, 0.00000,   0.000, 0.00000, 0.00000, 0.00000, 0.00000,   1
  29,  39,'BL',   0.05000,   0.10000,   0.05000,  0.00,  0.00,  0.00, 0.00000,   0.000, 0.00000, 0.00000, 0.00000, 0.00000,   1
  30,  40,'BL',   0.05000,   0.10000,   0.05000,  0.00,  0.00,  0.00, 0.00000,   0.000, 0.00000, 0.00000, 0.00000, 0.00000,   1
  31,  41,'BL',   0.05000,   0.10000,   0.05000,  0.00,  0.00,  0.00, 0.00000,   0.000, 0.00000, 0.00000, 0.00000, 0.00000,   1
  32,  42,'BL',   0.05000,   0.10000,   0.05000,  0.00,  0.00,  0.00, 0.00000,   0.000, 0.00000, 0.00000, 0.00000, 0.00000,   1
  33,  43,'BL',   0.05000,   0.10000,   0.05000,  0.00,  0.00,  0.00, 0.00000,   0.000, 0.00000, 0.00000, 0.00000, 0.00000,   1
  34,  44,'BL',   0.05000,   0.10000,   0.05000,  0.00,  0.00,  0.00, 0.00000,   0.000, 0.00000, 0.00000, 0.00000, 0.00000,   1
  35,  45,'BL',   0.05000,   0.10000,   0.05000,  0.00,  0.00,  0.00, 0.00000,   0.000, 0.00000, 0.00000, 0.00000, 0.00000,   1
  36,  46,'BL',   0.05000,   0.10000,   0.05000,  0.00,  0.00,  0.00, 0.00000,   0.000, 0.00000, 0.00000, 0.00000, 0.00000,   1
  37,  47,'BL',   0.05000,   0.10000,   0.05000,  0.00,  0.00,  0.00, 0.00000,   0.000, 0.00000, 0.00000, 0.00000, 0.00000,   1
  38,  48,'BL',   0.05000,   0.10000,   0.05000,  0.00,  0.00,  0.00, 0.00000,   0.000, 0.00000, 0.00000, 0.00000, 0.00000,   1
  39,  49,'BL',   0.05000,   0.10000,   0.05000,  0.00,  0.00,  0.00, 0.00000,   0.000, 0.00000, 0.00000, 0.00000, 0.00000,   1
  40,  50,'BL',   0.05000,   0.10000,   0.05000,  0.00,  0.00,  0.00, 0.00000,   0.000, 0.00000, 0.00000, 0.00000, 0.00000,   1
  41,  51,'BL',   0.05000,   0.10000,   0.05000,  0.00,  0.00,  0.00, 0.00000,   0.000, 0.00000, 0.00000, 0.00000, 0.00000,   1
  42,  52,'BL',   0.05000,   0.10000,   0.05000,  0.00,  0.00,  0.00, 0.00000,   0.000, 0.00000, 0.00000, 0.00000, 0.00000,   1
  43,  53,'BL',   0.05000,   0.10000,   0.05000,  0.00,  0.00,  0.00, 0.00000,   0.000, 0.00000, 0.00000, 0.00000, 0.00000,   1
  44,  54,'BL',   0.05000,   0.10000,   0.05000,  0.00,  0.00,  0.00, 0.00000,   0.000, 0.00000, 0.00000, 0.00000, 0.00000,   1
  45,  55,'BL',   0.05000,   0.10000,   0.05000,  0.00,  0.00,  0.00, 0.00000,   0.000, 0.00000, 0.00000, 0.00000, 0.00000,   1
  46,  56,'BL',   0.05000,   0.10000,   0.05000,  0.00,  0.00,  0.00, 0.00000,   0.000, 0.00000, 0.00000, 0.00000, 0.00000,   1
  47,  57,'BL',   0.05000,   0.10000,   0.05000,  0.00,  0.00,  0.00, 0.00000,   0.000, 0.00000, 0.00000, 0.00000, 0.00000,   1
  48,  58,'BL',   0.05000,   0.10000,   0.05000,  0.00,  0.00,  0.00, 0.00000,   0.000, 0.00000, 0.00000, 0.00000, 0.00000,   1
  49,  59,'BL',   0.05000,   0.10000,   0.05000,  0.00,  0.00,  0.00, 0.00000,   0.000, 0.00000, 0.00000, 0.00000, 0.00000,   1
  50,  60,'BL',   0.05000,   0.10000,   0.05000,  0.00,  0.00,  0.00, 0.00000,   0.000, 0.00000, 0.00000, 0.00000, 0.00000,   1
  51,  61,'BL',   0.05000,   0.10000,   0.05000,  0.00,  0.00,  0.00, 0.00000,   0.000, 0.00000, 0.00000, 0.00000, 0.00000,   1
  52,  62,'BL',   0.05000,   0.10000,   0.05000,  0.00,  0.00,  0.00, 0.00000,   0.000, 0.00000, 0.00000, 0.00000, 0.00000,   1
  53,  63,'BL',   0.05000,   0.10000,   0.05000,  0.00,  0.00,  0.00, 0.00000,   0.000, 0.00000, 0.00000, 0.00000, 0.00000,   1
  54,  64,'BL',   0.05000,   0.10000,   0.05000,  0.00,  0.00,  0.00, 0.00000,   0.000, 0.00000, 0.00000, 0.00000, 0.00000,   1
  55,  65,'BL',   0.05000,   0.10000,   0.05000,  0.00,  0.00,  0.00, 0.00000,   0.000, 0.00000, 0.00000, 0.00000, 0.00000,   1
  56,  66,'BL',   0.05000,   0.10000,   0.05000,  0.00,  0.00,  0.00, 0.00000,   0.000, 0.00000, 0.00000, 0.00000, 0.00000,   1
  57,  67,'BL',   0.05000,   0.10000,   0.05000,  0.00,  0.00,  0.00, 0.00000,   0.000, 0.00000, 0.00000, 0.00000, 0.00000,   1
  58,  68,'BL',   0.05000,   0.10000,   0.05000,  0.00,  0.00,  0.00, 0.00000,   0.000, 0.00000, 0.00000, 0.00000, 0.00000,   1
  59,  69,'BL',   0.05000,   0.10000,   0.05000,  0.00,  0.00,  0.00, 0.00000,   0.000, 0.00000, 0.00000, 0.00000, 0.00000,   1
  60,  70,'BL',   0.05000,   0.10000,   0.05000,  0.00,  0.00,  0.00, 0.00000,   0.000, 0.00000, 0.00000, 0.00000, 0.00000,   1
  61,  71,'BL',   0.05000,   0.10000,   0.05000,  0.00,  0.00,  0.00, 0.00000,   0.000, 0.00000, 0.00000, 0.00000, 0.00000,   1
  62,  72,'BL',   0.05000,   0.10000,   0.05000,  0.00,  0.00,  0.00, 0.00000,   0.000, 0.00000, 0.00000, 0.00000, 0.00000,   1
  63,  73,'BL',   0.05000,   0.10000,   0.05000,  0.00,  0.00,  0.00, 0.00000,   0.000, 0.00000, 0.00000, 0.00000, 0.00000,   1
  64,  74,'BL',   0.05000,   0.10000,   0.05000,  0.00,  0.00,  0.00, 0.00000,   0.000, 0.00000, 0.00000, 0.00000, 0.00000,   1
  65,  75,'BL',   0.05000,   0.10000,   0.05000,  0.00,  0.00,  0.00, 0.00000,   0.000, 0.00000, 0.00000, 0.00000, 0.00000,   1
  66,  76,'BL',   0.05000,   0.10000,   0.05000,  0.00,  0.00,  0.00, 0.00000,   0.000, 0.00000, 0.00000, 0.00000, 0.00000,   1
  67,  77,'BL',   0.05000,   0.10000,   0.05000,  0.00,  0.00,  0.00, 0.00000,   0.000, 0.00000, 0.00000, 0.00000, 0.00000,   1
  68,  78,'BL',   0.05000,   0.10000,   0.05000,  0.00,  0.00,  0.00, 0.00000,   0.000, 0.00000, 0.00000, 0.00000, 0.00000,   1
  69,  79,'BL',   0.05000,   0.10000,   0.05000,  0.00,  0.00,  0.00, 0.00000,   0.000, 0.00000, 0.00000, 0.00000, 0.00000,   1
  70,  80,'BL',   0.05000,   0.10000,   0.05000,  0.00,  0.00,  0.00, 0.00000,   0.000, 0.00000, 0.00000, 0.00000, 0.00000,   1
  71,  81,'BL',   0.05000,   0.10000,   0.05000,  0.00,  0.00,  0.00, 0.00000,   0.000, 0.00000, 0.00000, 0.00000, 0.00000,   1
  72,  82,'BL',   0.05000,   0.10000,   0.05000,  0.00,  0.00,  0.00, 0.00000,   0.000, 0.00000, 0.00000, 0.00000, 0.00000,   1
  73,  83,'BL',   0.05000,   0.10000,   0.05000,  0.00,  0.00,  0.00, 0.00000,   0.000, 0.00000, 0.00000, 0.00000, 0.00000,   1
  74,  84,'BL',   0.05000,   0.10000,   0.05000,  0.00,  0.00,  0.00, 0.00000,   0.000, 0.00000, 0.00000, 0.00000, 0.00000,   1
  75,  85,'BL',   0.05000,   0.10000,   0.05000,  0.00,  0.00,  0.00, 0.00000,   0.000, 0.00000, 0.00000, 0.00000, 0.00000,   1
  76,  86,'BL',   0.05000,   0.10000,   0.05000,  0.00,  0.00,  0.00, 0.00000,   0.000, 0.00000, 0.00000, 0.00000, 0.00000,   1
  77,  87,'BL',   0.05000,   0.10000,   0.05000,  0.00,  0.00,  0.00, 0.00000,   0.000, 0.00000, 0.00000, 0.00000, 0.00000,   1
  78,  88,'BL',   0.05000,   0.10000,   0.05000,  0.00,  0.00,  0.00, 0.00000,   0.000, 0.00000, 0.00000, 0.00000, 0.00000,   1
  79,  89,'BL',   0.05000,   0.10000,   0.05000,  0.00,  0.00,  0.00, 0.00000,   0.000, 0.00000, 0.00000, 0.00000, 0.00000,   1
  80,  90,'BL',   0.05000,   0.10000,   0.05000,  0.00,  0.00,  0.00, 0.00000,   0.000, 0.00000, 0.00000, 0.00000, 0.00000,   1
  81,  91,'BL',   0.05000,   0.10000,   0.05000,  0.00,  0.00,  0.00, 0.00000,   0.000, 0.00000, 0.00000, 0.00000, 0.00000,   1
  82,  92,'BL',   0.05000,   0.10000,   0.05000,  0.00,  0.00,  0.00, 0.00000,   0.000, 0.00000, 0.00000, 0.00000, 0.00000,   1
  83,  93,'BL',   0.05000,   0.10000,   0.05000,  0.00,  0.00,  0.00, 0.00000,   0.000, 0.00000, 0.00000, 0.00000, 0.00000,   1
  84,  94,'BL',   0.05000,   0.10000,   0.05000,  0.00,  0.00,  0.00, 0.00000,   0.000, 0.00000, 0.00000, 0.00000, 0.00000,   1
  85,  95,'BL',   0.05000,   0.10000,   0.05000,  0.00,  0.00,  0.00, 0.00000,   0.000, 0.00000, 0.00000, 0.00000, 0.00000,   1
  86,  96,'BL',   0.05000,   0.10000,   0.05000,  0.00,  0.00,  0.00, 0.00000,   0.000, 0.00000, 0.00000, 0.00000, 0.00000,   1
  87,  97,'BL',   0.05000,   0.10000,   0.05000,  0.00,  0.00,  0.00, 0.00000,   0.000, 0.00000, 0.00000, 0.00000, 0.00000,   1
  88,  98,'BL',   0.05000,   0.10000,   0.05000,  0.00,  0.00,  0.00, 0.00000,   0.000, 0.00000, 0.00000, 0.00000, 0.00000,   1
  89,  99,'BL',   0.05000,   0.10000,   0.05000,  0.00,  0.00,  0.00, 0.00000,   0.000, 0.00000, 0.00000, 0.00000, 0.00000,   1
  90, 100,'BL',   0.05000,   0.10000,   0.05000,  0.00,  0.00,  0.00, 0.00000,   0.000, 0.00000, 0.00000, 0.00000, 0.00000,   1
0 / END OF BRANCH DATA, BEGIN TRANSFORMER ADJUSTMENT DATA
0 / END OF TRANSFORMER ADJUSTMENT DATA, BEGIN AREA DATA
0 / END OF AREA DATA, BEGIN TWO-TERMINAL DC DATA
0 / END OF TWO-TERMINAL DATA, BEGIN SWITCHED SHUNT DATA
0 / END OF SWITCHED SHUNT DATA
